#======================================================================

# CRYSTAL DATA

#----------------------------------------------------------------------

data_VESTA_phase_1


_chemical_name_common                  '3D'
_cell_length_a                         29.00000
_cell_length_b                         29.00000
_cell_length_c                         40.00000
_cell_angle_alpha                      90
_cell_angle_beta                       90
_cell_angle_gamma                      90
_space_group_name_H-M_alt              'P 1'
_space_group_IT_number                 1

loop_
_space_group_symop_operation_xyz
   'x, y, z'

loop_
   _atom_site_label
   _atom_site_occupancy
   _atom_site_fract_x
   _atom_site_fract_y
   _atom_site_fract_z
   _atom_site_adp_type
   _atom_site_U_iso_or_equiv
   _atom_site_type_symbol
   Ca1        1.0     0.581733      0.496622      0.285867     Uiso  0.032480 Ca
   Ca2        1.0     0.436309      0.587421      0.284737     Uiso  0.032480 Ca
   Ca3        1.0     0.442772      0.426736      0.291355     Uiso  0.032480 Ca
   S1         1.0     0.533848      0.571579      0.280684     Uiso  0.032480 S
   O1         1.0     0.534473      0.542454      0.250000     Uiso  0.032480 O
   O2         1.0     0.518969      0.543155      0.309779     Uiso  0.032480 O
   O3         1.0     0.580953      0.590162      0.286991     Uiso  0.032480 O
   O4         1.0     0.500998      0.610545      0.275965     Uiso  0.032480 O
   S2         1.0     0.405810      0.492996      0.284182     Uiso  0.032480 S
   O5         1.0     0.378141      0.449703      0.284077     Uiso  0.032480 O
   O6         1.0     0.421885      0.502887      0.318828     Uiso  0.032480 O
   O7         1.0     0.446453      0.487450      0.261752     Uiso  0.032480 O
   O8         1.0     0.376760      0.531944      0.272073     Uiso  0.032480 O
   S3         1.0     0.529766      0.383472      0.285014     Uiso  0.032480 S
   O9         1.0     0.507094      0.344828      0.266782     Uiso  0.032480 O
   O10        1.0     0.512380      0.384995      0.320050     Uiso  0.032480 O
   O11        1.0     0.580627      0.376196      0.285246     Uiso  0.032480 O
   O12        1.0     0.518964      0.427869      0.267980     Uiso  0.032480 O
   Ca4        1.0     0.516146      0.583942      0.370392     Uiso  0.032480 Ca
   Ca5        1.0     0.381956      0.477238      0.369263     Uiso  0.032480 Ca
   Ca6        1.0     0.535557      0.429613      0.375881     Uiso  0.032480 Ca
   S4         1.0     0.429493      0.563870      0.365209     Uiso  0.032480 S
   O13        1.0     0.457151      0.554723      0.334525     Uiso  0.032480 O
   O14        1.0     0.451307      0.540345      0.394304     Uiso  0.032480 O
   O15        1.0     0.427726      0.614476      0.371516     Uiso  0.032480 O
   O16        1.0     0.381787      0.545935      0.360490     Uiso  0.032480 O
   S5         1.0     0.460753      0.416928      0.368707     Uiso  0.032480 S
   O17        1.0     0.492305      0.376378      0.368602     Uiso  0.032480 O
   O18        1.0     0.456805      0.435385      0.403353     Uiso  0.032480 O
   O19        1.0     0.479566      0.453379      0.346277     Uiso  0.032480 O
   O20        1.0     0.414334      0.402569      0.356598     Uiso  0.032480 O
   S6         1.0     0.605414      0.497139      0.369540     Uiso  0.032480 S
   O21        1.0     0.634255      0.462853      0.351307     Uiso  0.032480 O
   O22        1.0     0.598166      0.481263      0.404575     Uiso  0.032480 O
   O23        1.0     0.629274      0.542641      0.369771     Uiso  0.032480 O
   O24        1.0     0.559959      0.501801      0.352506     Uiso  0.032480 O
   Ca7        1.0     0.412453      0.552157      0.454917     Uiso  0.032480 Ca
   Ca8        1.0     0.468159      0.390016      0.453788     Uiso  0.032480 Ca
   Ca9        1.0     0.564392      0.518859      0.460406     Uiso  0.032480 Ca
   S7         1.0     0.402403      0.463779      0.449734     Uiso  0.032480 S
   O25        1.0     0.420269      0.486788      0.419050     Uiso  0.032480 O
   O26        1.0     0.431867      0.476474      0.478829     Uiso  0.032480 O
   O27        1.0     0.354117      0.479032      0.456041     Uiso  0.032480 O
   O28        1.0     0.403358      0.412823      0.445015     Uiso  0.032480 O
   S8         1.0     0.551341      0.444118      0.453232     Uiso  0.032480 S
   O29        1.0     0.600105      0.460300      0.453127     Uiso  0.032480 O
   O30        1.0     0.532626      0.446568      0.487878     Uiso  0.032480 O
   O31        1.0     0.523276      0.474035      0.430802     Uiso  0.032480 O
   O32        1.0     0.549356      0.395570      0.441123     Uiso  0.032480 O
   S9         1.0     0.524104      0.607271      0.454065     Uiso  0.032480 S
   O33        1.0     0.566059      0.622992      0.435832     Uiso  0.032480 O
   O34        1.0     0.536644      0.595133      0.489100     Uiso  0.032480 O
   O35        1.0     0.489196      0.644970      0.454296     Uiso  0.032480 O
   O36        1.0     0.504515      0.565990      0.437031     Uiso  0.032480 O
   Ca10       1.0     0.408275      0.444642      0.539442     Uiso  0.032480 Ca
   Ca11       1.0     0.579709      0.442940      0.538313     Uiso  0.032480 Ca
   Ca12       1.0     0.490449      0.576709      0.544931     Uiso  0.032480 Ca
   S10        1.0     0.488208      0.405626      0.534259     Uiso  0.032480 S
   O37        1.0     0.472495      0.430156      0.503575     Uiso  0.032480 O
   O38        1.0     0.486093      0.437638      0.563354     Uiso  0.032480 O
   O39        1.0     0.457691      0.365217      0.540566     Uiso  0.032480 O
   O40        1.0     0.536552      0.389491      0.529540     Uiso  0.032480 O
   S11        1.0     0.556527      0.539422      0.537758     Uiso  0.032480 S
   O41        1.0     0.557578      0.590791      0.537652     Uiso  0.032480 O
   O42        1.0     0.547962      0.522603      0.572403     Uiso  0.032480 O
   O43        1.0     0.518950      0.522973      0.515327     Uiso  0.032480 O
   O44        1.0     0.601619      0.521322      0.525648     Uiso  0.032480 O
   S12        1.0     0.393656      0.568294      0.538590     Uiso  0.032480 S
   O45        1.0     0.392865      0.613091      0.520357     Uiso  0.032480 O
   O46        1.0     0.409288      0.576055      0.573625     Uiso  0.032480 O
   O47        1.0     0.346456      0.547997      0.538821     Uiso  0.032480 O
   O48        1.0     0.426013      0.536032      0.521556     Uiso  0.032480 O
   Ca13       1.0     0.508736      0.405600      0.623967     Uiso  0.032480 Ca
   Ca14       1.0     0.567651      0.566603      0.622838     Uiso  0.032480 Ca
   Ca15       1.0     0.411739      0.527197      0.629456     Uiso  0.032480 Ca
   S13        1.0     0.572230      0.467892      0.618784     Uiso  0.032480 S
   O49        1.0     0.543858      0.461284      0.588100     Uiso  0.032480 O
   O50        1.0     0.541352      0.476600      0.647880     Uiso  0.032480 O
   O51        1.0     0.600112      0.425622      0.625091     Uiso  0.032480 O
   O52        1.0     0.603597      0.508061      0.614066     Uiso  0.032480 O
   S14        1.0     0.468969      0.577008      0.622283     Uiso  0.032480 S
   O53        1.0     0.420908      0.595171      0.622177     Uiso  0.032480 O
   O54        1.0     0.481958      0.563313      0.656928     Uiso  0.032480 O
   O55        1.0     0.471910      0.536094      0.599852     Uiso  0.032480 O
   O56        1.0     0.501102      0.613455      0.610173     Uiso  0.032480 O
   S15        1.0     0.387312      0.433159      0.623115     Uiso  0.032480 S
   O57        1.0     0.344828      0.447389      0.604882     Uiso  0.032480 O
   O58        1.0     0.385223      0.450486      0.658150     Uiso  0.032480 O
   O59        1.0     0.390662      0.381890      0.623346     Uiso  0.032480 O
   O60        1.0     0.428534      0.452870      0.606081     Uiso  0.032480 O
   Ca16       1.0     0.579645      0.488069      0.708492     Uiso  0.032480 Ca
   Ca17       1.0     0.447601      0.597416      0.707363     Uiso  0.032480 Ca
   Ca18       1.0     0.432619      0.437301      0.713981     Uiso  0.032480 Ca
   S16        1.0     0.542163      0.568733      0.703309     Uiso  0.032480 S
   O61        1.0     0.538907      0.539784      0.672625     Uiso  0.032480 O
   O62        1.0     0.523633      0.542543      0.732405     Uiso  0.032480 O
   O63        1.0     0.591322      0.580881      0.709616     Uiso  0.032480 O
   O64        1.0     0.514791      0.611724      0.698591     Uiso  0.032480 O
   S17        1.0     0.404805      0.507891      0.706808     Uiso  0.032480 S
   O65        1.0     0.371620      0.468666      0.706702     Uiso  0.032480 O
   O66        1.0     0.422054      0.515554      0.741453     Uiso  0.032480 O
   O67        1.0     0.444348      0.496985      0.684377     Uiso  0.032480 O
   O68        1.0     0.381197      0.550359      0.694698     Uiso  0.032480 O
   S18        1.0     0.513081      0.382843      0.707640     Uiso  0.032480 S
   O69        1.0     0.485467      0.347560      0.689408     Uiso  0.032480 O
   O70        1.0     0.496052      0.386666      0.742675     Uiso  0.032480 O
   O71        1.0     0.562520      0.368861      0.707871     Uiso  0.032480 O
   O72        1.0     0.508284      0.428283      0.690606     Uiso  0.032480 O
