#======================================================================

# CRYSTAL DATA

#----------------------------------------------------------------------

data_VESTA_phase_1


_chemical_name_common                  '3D'
_cell_length_a                         89.00000
_cell_length_b                         58.00000
_cell_length_c                         60.00000
_cell_angle_alpha                      90
_cell_angle_beta                       90
_cell_angle_gamma                      90
_space_group_name_H-M_alt              'P 1'
_space_group_IT_number                 1

loop_
_space_group_symop_operation_xyz
   'x, y, z'

loop_
   _atom_site_label
   _atom_site_occupancy
   _atom_site_fract_x
   _atom_site_fract_y
   _atom_site_fract_z
   _atom_site_adp_type
   _atom_site_U_iso_or_equiv
   _atom_site_type_symbol
   Ca1        1.0     0.358073      0.517624      0.529736     Uiso  0.030393 Ca
   Ca2        1.0     0.415064      0.521528      0.526043     Uiso  0.030393 Ca
   Ca3        1.0     0.304649      0.481850      0.470403     Uiso  0.030393 Ca
   Ca4        1.0     0.375574      0.471178      0.467241     Uiso  0.030393 Ca
   S1         1.0     0.344904      0.512688      0.482751     Uiso  0.030393 S
   O1         1.0     0.353279      0.518268      0.462093     Uiso  0.030393 O
   O2         1.0     0.345132      0.531816      0.499125     Uiso  0.030393 O
   O3         1.0     0.351586      0.492556      0.494516     Uiso  0.030393 O
   O4         1.0     0.329325      0.507260      0.475416     Uiso  0.030393 O
   S2         1.0     0.407104      0.523032      0.478102     Uiso  0.030393 S
   O5         1.0     0.411722      0.541275      0.462221     Uiso  0.030393 O
   O6         1.0     0.400881      0.532545      0.499088     Uiso  0.030393 O
   O7         1.0     0.395787      0.508887      0.465995     Uiso  0.030393 O
   O8         1.0     0.420079      0.508466      0.484930     Uiso  0.030393 O
   S3         1.0     0.324184      0.488731      0.521494     Uiso  0.030393 S
   O9         1.0     0.332289      0.473795      0.505457     Uiso  0.030393 O
   O10        1.0     0.321045      0.476917      0.542896     Uiso  0.030393 O
   O11        1.0     0.333163      0.509486      0.527441     Uiso  0.030393 O
   O12        1.0     0.310067      0.495644      0.509995     Uiso  0.030393 O
   S4         1.0     0.379982      0.487995      0.531403     Uiso  0.030393 S
   O13        1.0     0.380839      0.462793      0.527529     Uiso  0.030393 O
   O14        1.0     0.368817      0.494202      0.548720     Uiso  0.030393 O
   O15        1.0     0.394562      0.497383      0.539482     Uiso  0.030393 O
   O16        1.0     0.376065      0.498256      0.509421     Uiso  0.030393 O
   O17        1.0     0.340638      0.545386      0.537422     Uiso  0.030393 O
   H1         1.0     0.334656      0.532957      0.541265     Uiso  0.030393 H
   H2         1.0     0.336374      0.556586      0.528380     Uiso  0.030393 H
   O18        1.0     0.407645      0.547231      0.541537     Uiso  0.030393 O
   H3         1.0     0.406389      0.531498      0.543295     Uiso  0.030393 H
   H4         1.0     0.414063      0.554600      0.551417     Uiso  0.030393 H
   O19        1.0     0.316853      0.448137      0.463451     Uiso  0.030393 O
   H5         1.0     0.310478      0.460313      0.460305     Uiso  0.030393 H
   H6         1.0     0.312663      0.435300      0.470262     Uiso  0.030393 H
   O20        1.0     0.391737      0.444571      0.463455     Uiso  0.030393 O
   H7         1.0     0.385962      0.456763      0.458398     Uiso  0.030393 H
   H8         1.0     0.386737      0.431034      0.467022     Uiso  0.030393 H
   O21        1.0     0.369524      0.539638      0.497053     Uiso  0.030393 O
   H9         1.0     0.379837      0.541558      0.496419     Uiso  0.030393 H
   H10        1.0     0.363711      0.552879      0.497935     Uiso  0.030393 H
   O22        1.0     0.350597      0.458934      0.487248     Uiso  0.030393 O
   H11        1.0     0.347467      0.470808      0.478052     Uiso  0.030393 H
   H12        1.0     0.348006      0.459913      0.502192     Uiso  0.030393 H
   O23        1.0     0.428569      0.548735      0.497171     Uiso  0.030393 O
   H13        1.0     0.437013      0.540167      0.493651     Uiso  0.030393 H
   H14        1.0     0.425546      0.559794      0.486945     Uiso  0.030393 H
   O24        1.0     0.349976      0.514653      0.560384     Uiso  0.030393 O
   H15        1.0     0.350992      0.513269      0.575719     Uiso  0.030393 H
   H16        1.0     0.353372      0.501019      0.554049     Uiso  0.030393 H
   O25        1.0     0.376332      0.537495      0.560029     Uiso  0.030393 O
   H17        1.0     0.368654      0.546590      0.565704     Uiso  0.030393 H
   H18        1.0     0.382540      0.533487      0.571837     Uiso  0.030393 H
   O26        1.0     0.415100      0.505019      0.555056     Uiso  0.030393 O
   H19        1.0     0.411123      0.518291      0.548747     Uiso  0.030393 H
   H20        1.0     0.410153      0.502547      0.568460     Uiso  0.030393 H
   O27        1.0     0.433077      0.539137      0.559479     Uiso  0.030393 O
   H21        1.0     0.423760      0.533250      0.555499     Uiso  0.030393 H
   H22        1.0     0.432479      0.543748      0.574263     Uiso  0.030393 H
   O28        1.0     0.282705      0.471841      0.438876     Uiso  0.030393 O
   H23        1.0     0.282943      0.485401      0.430675     Uiso  0.030393 H
   H24        1.0     0.280899      0.459845      0.428998     Uiso  0.030393 H
   O29        1.0     0.286913      0.461295      0.495858     Uiso  0.030393 O
   H25        1.0     0.291820      0.457976      0.509122     Uiso  0.030393 H
   H26        1.0     0.292981      0.471319      0.487839     Uiso  0.030393 H
   O30        1.0     0.303337      0.502383      0.443047     Uiso  0.030393 O
   H27        1.0     0.301543      0.511451      0.455509     Uiso  0.030393 H
   H28        1.0     0.306931      0.488268      0.448011     Uiso  0.030393 H
   O31        1.0     0.357674      0.457393      0.438798     Uiso  0.030393 O
   H29        1.0     0.366679      0.449961      0.435770     Uiso  0.030393 H
   H30        1.0     0.350890      0.453201      0.427773     Uiso  0.030393 H
   O32        1.0     0.374913      0.498301      0.431764     Uiso  0.030393 O
   H31        1.0     0.374248      0.501622      0.416667     Uiso  0.030393 H
   H32        1.0     0.384020      0.504066      0.436831     Uiso  0.030393 H
   Ca5        1.0     0.498226      0.517624      0.529736     Uiso  0.030393 Ca
   Ca6        1.0     0.555217      0.521528      0.526043     Uiso  0.030393 Ca
   Ca7        1.0     0.444802      0.481850      0.470403     Uiso  0.030393 Ca
   Ca8        1.0     0.515727      0.471178      0.467241     Uiso  0.030393 Ca
   S5         1.0     0.485057      0.512688      0.482751     Uiso  0.030393 S
   O33        1.0     0.493432      0.518268      0.462093     Uiso  0.030393 O
   O34        1.0     0.485284      0.531816      0.499125     Uiso  0.030393 O
   O35        1.0     0.491739      0.492556      0.494516     Uiso  0.030393 O
   O36        1.0     0.469478      0.507260      0.475416     Uiso  0.030393 O
   S6         1.0     0.547256      0.523032      0.478102     Uiso  0.030393 S
   O37        1.0     0.551874      0.541275      0.462221     Uiso  0.030393 O
   O38        1.0     0.541034      0.532545      0.499088     Uiso  0.030393 O
   O39        1.0     0.535940      0.508887      0.465995     Uiso  0.030393 O
   O40        1.0     0.560232      0.508466      0.484930     Uiso  0.030393 O
   S7         1.0     0.464336      0.488731      0.521494     Uiso  0.030393 S
   O41        1.0     0.472442      0.473795      0.505457     Uiso  0.030393 O
   O42        1.0     0.461197      0.476917      0.542896     Uiso  0.030393 O
   O43        1.0     0.473316      0.509486      0.527441     Uiso  0.030393 O
   O44        1.0     0.450220      0.495644      0.509995     Uiso  0.030393 O
   S8         1.0     0.520135      0.487995      0.531403     Uiso  0.030393 S
   O45        1.0     0.520991      0.462793      0.527529     Uiso  0.030393 O
   O46        1.0     0.508970      0.494202      0.548720     Uiso  0.030393 O
   O47        1.0     0.534715      0.497383      0.539482     Uiso  0.030393 O
   O48        1.0     0.516218      0.498256      0.509421     Uiso  0.030393 O
   O49        1.0     0.480791      0.545386      0.537422     Uiso  0.030393 O
   H33        1.0     0.474809      0.532957      0.541265     Uiso  0.030393 H
   H34        1.0     0.476527      0.556586      0.528380     Uiso  0.030393 H
   O50        1.0     0.547798      0.547231      0.541537     Uiso  0.030393 O
   H35        1.0     0.546541      0.531498      0.543295     Uiso  0.030393 H
   H36        1.0     0.554216      0.554600      0.551417     Uiso  0.030393 H
   O51        1.0     0.457006      0.448137      0.463451     Uiso  0.030393 O
   H37        1.0     0.450631      0.460313      0.460305     Uiso  0.030393 H
   H38        1.0     0.452816      0.435300      0.470262     Uiso  0.030393 H
   O52        1.0     0.531890      0.444571      0.463455     Uiso  0.030393 O
   H39        1.0     0.526115      0.456763      0.458398     Uiso  0.030393 H
   H40        1.0     0.526890      0.431034      0.467022     Uiso  0.030393 H
   O53        1.0     0.509677      0.539638      0.497053     Uiso  0.030393 O
   H41        1.0     0.519990      0.541558      0.496419     Uiso  0.030393 H
   H42        1.0     0.503864      0.552879      0.497935     Uiso  0.030393 H
   O54        1.0     0.490750      0.458934      0.487248     Uiso  0.030393 O
   H43        1.0     0.487620      0.470808      0.478052     Uiso  0.030393 H
   H44        1.0     0.488159      0.459913      0.502192     Uiso  0.030393 H
   O55        1.0     0.568722      0.548735      0.497171     Uiso  0.030393 O
   H45        1.0     0.577166      0.540167      0.493651     Uiso  0.030393 H
   H46        1.0     0.565699      0.559794      0.486945     Uiso  0.030393 H
   O56        1.0     0.490129      0.514653      0.560384     Uiso  0.030393 O
   H47        1.0     0.491145      0.513269      0.575719     Uiso  0.030393 H
   H48        1.0     0.493525      0.501019      0.554049     Uiso  0.030393 H
   O57        1.0     0.516485      0.537495      0.560029     Uiso  0.030393 O
   H49        1.0     0.508807      0.546590      0.565704     Uiso  0.030393 H
   H50        1.0     0.522693      0.533487      0.571837     Uiso  0.030393 H
   O58        1.0     0.555253      0.505019      0.555056     Uiso  0.030393 O
   H51        1.0     0.551276      0.518291      0.548747     Uiso  0.030393 H
   H52        1.0     0.550306      0.502547      0.568460     Uiso  0.030393 H
   O59        1.0     0.573230      0.539137      0.559479     Uiso  0.030393 O
   H53        1.0     0.563913      0.533250      0.555499     Uiso  0.030393 H
   H54        1.0     0.572631      0.543748      0.574263     Uiso  0.030393 H
   O60        1.0     0.422858      0.471841      0.438876     Uiso  0.030393 O
   H55        1.0     0.423096      0.485401      0.430675     Uiso  0.030393 H
   H56        1.0     0.421052      0.459845      0.428998     Uiso  0.030393 H
   O61        1.0     0.427066      0.461295      0.495858     Uiso  0.030393 O
   H57        1.0     0.431973      0.457976      0.509122     Uiso  0.030393 H
   H58        1.0     0.433134      0.471319      0.487839     Uiso  0.030393 H
   O62        1.0     0.443490      0.502383      0.443047     Uiso  0.030393 O
   H59        1.0     0.441696      0.511451      0.455509     Uiso  0.030393 H
   H60        1.0     0.447084      0.488268      0.448011     Uiso  0.030393 H
   O63        1.0     0.497827      0.457393      0.438798     Uiso  0.030393 O
   H61        1.0     0.506832      0.449961      0.435770     Uiso  0.030393 H
   H62        1.0     0.491043      0.453201      0.427773     Uiso  0.030393 H
   O64        1.0     0.515066      0.498301      0.431764     Uiso  0.030393 O
   H63        1.0     0.514401      0.501622      0.416667     Uiso  0.030393 H
   H64        1.0     0.524173      0.504066      0.436831     Uiso  0.030393 H
   Ca9        1.0     0.638379      0.517624      0.529736     Uiso  0.030393 Ca
   Ca10       1.0     0.695370      0.521528      0.526043     Uiso  0.030393 Ca
   Ca11       1.0     0.584955      0.481850      0.470403     Uiso  0.030393 Ca
   Ca12       1.0     0.655880      0.471178      0.467241     Uiso  0.030393 Ca
   S9         1.0     0.625210      0.512688      0.482751     Uiso  0.030393 S
   O65        1.0     0.633585      0.518268      0.462093     Uiso  0.030393 O
   O66        1.0     0.625437      0.531816      0.499125     Uiso  0.030393 O
   O67        1.0     0.631892      0.492556      0.494516     Uiso  0.030393 O
   O68        1.0     0.609631      0.507260      0.475416     Uiso  0.030393 O
   S10        1.0     0.687409      0.523032      0.478102     Uiso  0.030393 S
   O69        1.0     0.692027      0.541275      0.462221     Uiso  0.030393 O
   O70        1.0     0.681187      0.532545      0.499088     Uiso  0.030393 O
   O71        1.0     0.676093      0.508887      0.465995     Uiso  0.030393 O
   O72        1.0     0.700385      0.508466      0.484930     Uiso  0.030393 O
   S11        1.0     0.604489      0.488731      0.521494     Uiso  0.030393 S
   O73        1.0     0.612594      0.473795      0.505457     Uiso  0.030393 O
   O74        1.0     0.601350      0.476917      0.542896     Uiso  0.030393 O
   O75        1.0     0.613469      0.509486      0.527441     Uiso  0.030393 O
   O76        1.0     0.590373      0.495644      0.509995     Uiso  0.030393 O
   S12        1.0     0.660288      0.487995      0.531403     Uiso  0.030393 S
   O77        1.0     0.661144      0.462793      0.527529     Uiso  0.030393 O
   O78        1.0     0.649122      0.494202      0.548720     Uiso  0.030393 O
   O79        1.0     0.674868      0.497383      0.539482     Uiso  0.030393 O
   O80        1.0     0.656371      0.498256      0.509421     Uiso  0.030393 O
   O81        1.0     0.620944      0.545386      0.537422     Uiso  0.030393 O
   H65        1.0     0.614962      0.532957      0.541265     Uiso  0.030393 H
   H66        1.0     0.616680      0.556586      0.528380     Uiso  0.030393 H
   O82        1.0     0.687951      0.547231      0.541537     Uiso  0.030393 O
   H67        1.0     0.686694      0.531498      0.543295     Uiso  0.030393 H
   H68        1.0     0.694369      0.554600      0.551417     Uiso  0.030393 H
   O83        1.0     0.597159      0.448137      0.463451     Uiso  0.030393 O
   H69        1.0     0.590784      0.460313      0.460305     Uiso  0.030393 H
   H70        1.0     0.592969      0.435300      0.470262     Uiso  0.030393 H
   O84        1.0     0.672043      0.444571      0.463455     Uiso  0.030393 O
   H71        1.0     0.666268      0.456763      0.458398     Uiso  0.030393 H
   H72        1.0     0.667043      0.431034      0.467022     Uiso  0.030393 H
   O85        1.0     0.649830      0.539638      0.497053     Uiso  0.030393 O
   H73        1.0     0.660143      0.541558      0.496419     Uiso  0.030393 H
   H74        1.0     0.644016      0.552879      0.497935     Uiso  0.030393 H
   O86        1.0     0.630903      0.458934      0.487248     Uiso  0.030393 O
   H75        1.0     0.627773      0.470808      0.478052     Uiso  0.030393 H
   H76        1.0     0.628312      0.459913      0.502192     Uiso  0.030393 H
   O87        1.0     0.708875      0.548735      0.497171     Uiso  0.030393 O
   H77        1.0     0.717319      0.540167      0.493651     Uiso  0.030393 H
   H78        1.0     0.705851      0.559794      0.486945     Uiso  0.030393 H
   O88        1.0     0.630282      0.514653      0.560384     Uiso  0.030393 O
   H79        1.0     0.631298      0.513269      0.575719     Uiso  0.030393 H
   H80        1.0     0.633677      0.501019      0.554049     Uiso  0.030393 H
   O89        1.0     0.656638      0.537495      0.560029     Uiso  0.030393 O
   H81        1.0     0.648960      0.546590      0.565704     Uiso  0.030393 H
   H82        1.0     0.662846      0.533487      0.571837     Uiso  0.030393 H
   O90        1.0     0.695406      0.505019      0.555056     Uiso  0.030393 O
   H83        1.0     0.691429      0.518291      0.548747     Uiso  0.030393 H
   H84        1.0     0.690459      0.502547      0.568460     Uiso  0.030393 H
   O91        1.0     0.713383      0.539137      0.559479     Uiso  0.030393 O
   H85        1.0     0.704066      0.533250      0.555499     Uiso  0.030393 H
   H86        1.0     0.712784      0.543748      0.574263     Uiso  0.030393 H
   O92        1.0     0.563011      0.471841      0.438876     Uiso  0.030393 O
   H87        1.0     0.563249      0.485401      0.430675     Uiso  0.030393 H
   H88        1.0     0.561205      0.459845      0.428998     Uiso  0.030393 H
   O93        1.0     0.567219      0.461295      0.495858     Uiso  0.030393 O
   H89        1.0     0.572126      0.457976      0.509122     Uiso  0.030393 H
   H90        1.0     0.573287      0.471319      0.487839     Uiso  0.030393 H
   O94        1.0     0.583643      0.502383      0.443047     Uiso  0.030393 O
   H91        1.0     0.581849      0.511451      0.455509     Uiso  0.030393 H
   H92        1.0     0.587237      0.488268      0.448011     Uiso  0.030393 H
   O95        1.0     0.637980      0.457393      0.438798     Uiso  0.030393 O
   H93        1.0     0.646985      0.449961      0.435770     Uiso  0.030393 H
   H94        1.0     0.631196      0.453201      0.427773     Uiso  0.030393 H
   O96        1.0     0.655219      0.498301      0.431764     Uiso  0.030393 O
   H95        1.0     0.654554      0.501622      0.416667     Uiso  0.030393 H
   H96        1.0     0.664326      0.504066      0.436831     Uiso  0.030393 H
