#======================================================================

# CRYSTAL DATA

#----------------------------------------------------------------------

data_VESTA_phase_1


_chemical_name_common                  '3D'
_cell_length_a                         31.00000
_cell_length_b                         30.00000
_cell_length_c                         39.00000
_cell_angle_alpha                      90
_cell_angle_beta                       90
_cell_angle_gamma                      90
_space_group_name_H-M_alt              'P 1'
_space_group_IT_number                 1

loop_
_space_group_symop_operation_xyz
   'x, y, z'

loop_
   _atom_site_label
   _atom_site_occupancy
   _atom_site_fract_x
   _atom_site_fract_y
   _atom_site_fract_z
   _atom_site_adp_type
   _atom_site_U_iso_or_equiv
   _atom_site_type_symbol
   Ca1        1.0     0.432693      0.438417      0.292682     Uiso  0.025486 Ca
   Ca2        1.0     0.535868      0.534654      0.302128     Uiso  0.025486 Ca
   Ca3        1.0     0.549820      0.439038      0.368805     Uiso  0.025486 Ca
   Ca4        1.0     0.436116      0.530296      0.386790     Uiso  0.025486 Ca
   S1         1.0     0.545146      0.437132      0.305843     Uiso  0.025486 S
   O1         1.0     0.498238      0.431521      0.312969     Uiso  0.025486 O
   O2         1.0     0.561588      0.476990      0.324519     Uiso  0.025486 O
   O3         1.0     0.568908      0.396744      0.317577     Uiso  0.025486 O
   O4         1.0     0.551849      0.443273      0.268308     Uiso  0.025486 O
   S2         1.0     0.420822      0.529869      0.285454     Uiso  0.025486 S
   O5         1.0     0.391868      0.493973      0.272511     Uiso  0.025486 O
   O6         1.0     0.406220      0.544215      0.320140     Uiso  0.025486 O
   O7         1.0     0.465839      0.512693      0.287604     Uiso  0.025486 O
   O8         1.0     0.419360      0.568595      0.261561     Uiso  0.025486 O
   S3         1.0     0.441400      0.438788      0.369406     Uiso  0.025486 S
   O9         1.0     0.405364      0.406434      0.364965     Uiso  0.025486 O
   O10        1.0     0.435884      0.463102      0.402430     Uiso  0.025486 O
   O11        1.0     0.483247      0.414360      0.369731     Uiso  0.025486 O
   O12        1.0     0.441106      0.471258      0.340497     Uiso  0.025486 O
   S4         1.0     0.565400      0.556813      0.363471     Uiso  0.025486 S
   O13        1.0     0.529093      0.524363      0.365393     Uiso  0.025486 O
   O14        1.0     0.567526      0.582865      0.395954     Uiso  0.025486 O
   O15        1.0     0.606712      0.532291      0.358421     Uiso  0.025486 O
   O16        1.0     0.558269      0.587733      0.334114     Uiso  0.025486 O
   O17        1.0     0.437625      0.358336      0.295396     Uiso  0.025486 O
   H1         1.0     0.437271      0.339620      0.315360     Uiso  0.025486 H
   H2         1.0     0.440347      0.339289      0.275735     Uiso  0.025486 H
   O18        1.0     0.345165      0.428011      0.280680     Uiso  0.025486 O
   H3         1.0     0.322581      0.420535      0.296509     Uiso  0.025486 H
   H4         1.0     0.332200      0.431665      0.258503     Uiso  0.025486 H
   O19        1.0     0.539159      0.612895      0.279938     Uiso  0.025486 O
   H5         1.0     0.535069      0.640797      0.291543     Uiso  0.025486 H
   H6         1.0     0.545716      0.619423      0.256410     Uiso  0.025486 H
   O20        1.0     0.619903      0.516588      0.289466     Uiso  0.025486 O
   H7         1.0     0.643223      0.518746      0.305577     Uiso  0.025486 H
   H8         1.0     0.631829      0.506844      0.268022     Uiso  0.025486 H
   O21        1.0     0.532124      0.357378      0.369348     Uiso  0.025486 O
   H9         1.0     0.530004      0.333333      0.385503     Uiso  0.025486 H
   H10        1.0     0.524998      0.345656      0.347155     Uiso  0.025486 H
   O22        1.0     0.635953      0.438970      0.354974     Uiso  0.025486 O
   H11        1.0     0.659032      0.443858      0.370951     Uiso  0.025486 H
   H12        1.0     0.648675      0.433963      0.332865     Uiso  0.025486 H
   O23        1.0     0.369710      0.524076      0.384822     Uiso  0.025486 O
   H13        1.0     0.347301      0.520876      0.401633     Uiso  0.025486 H
   H14        1.0     0.356250      0.524128      0.362653     Uiso  0.025486 H
   O24        1.0     0.444060      0.613907      0.377128     Uiso  0.025486 O
   H15        1.0     0.441719      0.632838      0.396886     Uiso  0.025486 H
   H16        1.0     0.449100      0.632715      0.357620     Uiso  0.025486 H
   Ca5        1.0     0.432693      0.438417      0.461796     Uiso  0.025486 Ca
   Ca6        1.0     0.535868      0.534654      0.471242     Uiso  0.025486 Ca
   Ca7        1.0     0.549820      0.439038      0.537918     Uiso  0.025486 Ca
   Ca8        1.0     0.436116      0.530296      0.555904     Uiso  0.025486 Ca
   S5         1.0     0.545146      0.437132      0.474957     Uiso  0.025486 S
   O25        1.0     0.498238      0.431521      0.482083     Uiso  0.025486 O
   O26        1.0     0.561588      0.476990      0.493633     Uiso  0.025486 O
   O27        1.0     0.568908      0.396744      0.486690     Uiso  0.025486 O
   O28        1.0     0.551849      0.443273      0.437421     Uiso  0.025486 O
   S6         1.0     0.420822      0.529869      0.454568     Uiso  0.025486 S
   O29        1.0     0.391868      0.493973      0.441624     Uiso  0.025486 O
   O30        1.0     0.406220      0.544215      0.489254     Uiso  0.025486 O
   O31        1.0     0.465839      0.512693      0.456718     Uiso  0.025486 O
   O32        1.0     0.419360      0.568595      0.430674     Uiso  0.025486 O
   S7         1.0     0.441400      0.438788      0.538519     Uiso  0.025486 S
   O33        1.0     0.405364      0.406434      0.534078     Uiso  0.025486 O
   O34        1.0     0.435884      0.463102      0.571544     Uiso  0.025486 O
   O35        1.0     0.483247      0.414360      0.538845     Uiso  0.025486 O
   O36        1.0     0.441106      0.471258      0.509610     Uiso  0.025486 O
   S8         1.0     0.565400      0.556813      0.532584     Uiso  0.025486 S
   O37        1.0     0.529093      0.524363      0.534506     Uiso  0.025486 O
   O38        1.0     0.567526      0.582865      0.565068     Uiso  0.025486 O
   O39        1.0     0.606712      0.532291      0.527535     Uiso  0.025486 O
   O40        1.0     0.558269      0.587733      0.503228     Uiso  0.025486 O
   O41        1.0     0.437625      0.358336      0.464510     Uiso  0.025486 O
   H17        1.0     0.437271      0.339620      0.484474     Uiso  0.025486 H
   H18        1.0     0.440347      0.339289      0.444848     Uiso  0.025486 H
   O42        1.0     0.345165      0.428011      0.449793     Uiso  0.025486 O
   H19        1.0     0.322581      0.420535      0.465623     Uiso  0.025486 H
   H20        1.0     0.332200      0.431665      0.427617     Uiso  0.025486 H
   O43        1.0     0.539159      0.612895      0.449051     Uiso  0.025486 O
   H21        1.0     0.535069      0.640797      0.460656     Uiso  0.025486 H
   H22        1.0     0.545716      0.619423      0.425524     Uiso  0.025486 H
   O44        1.0     0.619903      0.516588      0.458580     Uiso  0.025486 O
   H23        1.0     0.643223      0.518746      0.474691     Uiso  0.025486 H
   H24        1.0     0.631829      0.506844      0.437135     Uiso  0.025486 H
   O45        1.0     0.532124      0.357378      0.538461     Uiso  0.025486 O
   H25        1.0     0.530004      0.333333      0.554616     Uiso  0.025486 H
   H26        1.0     0.524998      0.345656      0.516268     Uiso  0.025486 H
   O46        1.0     0.635953      0.438970      0.524088     Uiso  0.025486 O
   H27        1.0     0.659032      0.443858      0.540065     Uiso  0.025486 H
   H28        1.0     0.648675      0.433963      0.501979     Uiso  0.025486 H
   O47        1.0     0.369710      0.524076      0.553935     Uiso  0.025486 O
   H29        1.0     0.347301      0.520876      0.570746     Uiso  0.025486 H
   H30        1.0     0.356250      0.524128      0.531767     Uiso  0.025486 H
   O48        1.0     0.444060      0.613907      0.546241     Uiso  0.025486 O
   H31        1.0     0.441719      0.632838      0.566000     Uiso  0.025486 H
   H32        1.0     0.449100      0.632715      0.526734     Uiso  0.025486 H
   Ca9        1.0     0.432693      0.438417      0.630909     Uiso  0.025486 Ca
   Ca10       1.0     0.535868      0.534654      0.640355     Uiso  0.025486 Ca
   Ca11       1.0     0.549820      0.439038      0.707032     Uiso  0.025486 Ca
   Ca12       1.0     0.436116      0.530296      0.725017     Uiso  0.025486 Ca
   S9         1.0     0.545146      0.437132      0.644070     Uiso  0.025486 S
   O49        1.0     0.498238      0.431521      0.651196     Uiso  0.025486 O
   O50        1.0     0.561588      0.476990      0.662746     Uiso  0.025486 O
   O51        1.0     0.568908      0.396744      0.655804     Uiso  0.025486 O
   O52        1.0     0.551849      0.443273      0.606535     Uiso  0.025486 O
   S10        1.0     0.420822      0.529869      0.623681     Uiso  0.025486 S
   O53        1.0     0.391868      0.493973      0.610738     Uiso  0.025486 O
   O54        1.0     0.406220      0.544215      0.658367     Uiso  0.025486 O
   O55        1.0     0.465839      0.512693      0.625831     Uiso  0.025486 O
   O56        1.0     0.419360      0.568595      0.599788     Uiso  0.025486 O
   S11        1.0     0.441400      0.438788      0.707633     Uiso  0.025486 S
   O57        1.0     0.405364      0.406434      0.703192     Uiso  0.025486 O
   O58        1.0     0.435884      0.463102      0.740657     Uiso  0.025486 O
   O59        1.0     0.483247      0.414360      0.707958     Uiso  0.025486 O
   O60        1.0     0.441106      0.471258      0.678724     Uiso  0.025486 O
   S12        1.0     0.565400      0.556813      0.701698     Uiso  0.025486 S
   O61        1.0     0.529093      0.524363      0.703620     Uiso  0.025486 O
   O62        1.0     0.567526      0.582865      0.734181     Uiso  0.025486 O
   O63        1.0     0.606712      0.532291      0.696648     Uiso  0.025486 O
   O64        1.0     0.558269      0.587733      0.672341     Uiso  0.025486 O
   O65        1.0     0.437625      0.358336      0.633623     Uiso  0.025486 O
   H33        1.0     0.437271      0.339620      0.653587     Uiso  0.025486 H
   H34        1.0     0.440347      0.339289      0.613962     Uiso  0.025486 H
   O66        1.0     0.345165      0.428011      0.618907     Uiso  0.025486 O
   H35        1.0     0.322581      0.420535      0.634736     Uiso  0.025486 H
   H36        1.0     0.332200      0.431665      0.596730     Uiso  0.025486 H
   O67        1.0     0.539159      0.612895      0.618165     Uiso  0.025486 O
   H37        1.0     0.535069      0.640797      0.629770     Uiso  0.025486 H
   H38        1.0     0.545716      0.619423      0.594637     Uiso  0.025486 H
   O68        1.0     0.619903      0.516588      0.627693     Uiso  0.025486 O
   H39        1.0     0.643223      0.518746      0.643804     Uiso  0.025486 H
   H40        1.0     0.631829      0.506844      0.606249     Uiso  0.025486 H
   O69        1.0     0.532124      0.357378      0.707575     Uiso  0.025486 O
   H41        1.0     0.530004      0.333333      0.723730     Uiso  0.025486 H
   H42        1.0     0.524998      0.345656      0.685382     Uiso  0.025486 H
   O70        1.0     0.635953      0.438970      0.693202     Uiso  0.025486 O
   H43        1.0     0.659032      0.443858      0.709178     Uiso  0.025486 H
   H44        1.0     0.648675      0.433963      0.671092     Uiso  0.025486 H
   O71        1.0     0.369710      0.524076      0.723049     Uiso  0.025486 O
   H45        1.0     0.347301      0.520876      0.739860     Uiso  0.025486 H
   H46        1.0     0.356250      0.524128      0.700880     Uiso  0.025486 H
   O72        1.0     0.444060      0.613907      0.715355     Uiso  0.025486 O
   H47        1.0     0.441719      0.632838      0.735113     Uiso  0.025486 H
   H48        1.0     0.449100      0.632715      0.695847     Uiso  0.025486 H
